<types>
    <type id="2lane" numLanes="2" speed="13.89"/>
</types>
