<configuration>
    <input>
        <net-file value="intersection.net.xml"/>
        <route-files value="intersection.rou.xml"/>
        <additional-files value="fixed_timer.add.xml"/>
    </input>
    <time>
        <begin value="0"/>
        <end value="3600"/>
    </time>
    <tripinfo-output value="tripinfo_fixed.xml"/>
</configuration>
