<edges>
    <edge id="N_to_C" from="N" to="C" type="2lane"/>
    <edge id="S_to_C" from="S" to="C" type="2lane"/>
    <edge id="E_to_C" from="E" to="C" type="2lane"/>
    <edge id="W_to_C" from="W" to="C" type="2lane"/>

    <edge id="C_to_N" from="C" to="N" type="2lane"/>
    <edge id="C_to_S" from="C" to="S" type="2lane"/>
    <edge id="C_to_E" from="C" to="E" type="2lane"/>
    <edge id="C_to_W" from="C" to="W" type="2lane"/>
</edges>
